# Packages (lines beginning "#" are comments)
 &PACKAGES
 useMNC=.TRUE.,
 &
